 &EXF_NML_01
# repeatPeriod = 43200,
# exf_debugLev = 4,
 &

 &EXF_NML_02
 dmdtfile = 'dm_dt_IGZ.bin',
 dmdtstartdate1 = 20190101,
 dmdtstartdate2 = 000000,
 dmdtperiod = 1800.0,
 dmdtRepCycle = 43200.0, 
 &

 &EXF_NML_03
 &

# &EXF_NML_OBCS
# obcsNstartdate1 = 20190101,
# obcsNstartdate2 = 000000,
# obcsNperiod
#obcsNrepCycle
#&EXF_NML_04
#&
