&CAL_NML
 TheCalendar='gregorian',
 startDate_1=20190101,
 startDate_2=000000,
&
